LTspice 24.0.12 for Windows
Circuit: * Z:\home\jkmunson\workspace\sp24\EENG_331_LAB5\part_1_f.asc
Start Time: Tue May 14 04:41:11 2024
solver = Normal
Maximum thread count: 16
tnom = 27
temp = 27
method = modified trap
Instance "m1": Length shorter than recommended for a level 1 MOSFET.
Direct Newton iteration for .op point succeeded.
Total elapsed time: 0.796 seconds.

