LTspice 24.0.9 for Windows
Circuit: * Z:\home\jkmunson\workspace\sp24\EENG_331_LAB5\part_2_e.asc
Start Time: Tue May 14 15:14:28 2024
solver = Normal
Maximum thread count: 16
tnom = 27
temp = 27
method = modified trap
WARNING: Node VOUT is floating.

WARNING: Less than two connections to node vout.  This node is used by c2.
WARNING: Less than two connections to node vtest.  This node is used by vtest.
Instance "m1": Length shorter than recommended for a level 1 MOSFET.
Direct Newton iteration for .op point succeeded.
Total elapsed time: 0.385 seconds.

